#======================================================================

# CRYSTAL DATA

#----------------------------------------------------------------------

data_VESTA_phase_1


_pd_phase_name                         'nuclear                       '
_cell_length_a                         5.405289(7)
_cell_length_b                         5.405289(7)
_cell_length_c                         12.944038(7)
_cell_angle_alpha                      90
_cell_angle_beta                       90
_cell_angle_gamma                      120
_symmetry_space_group_name_H-M         'P 1'
_symmetry_Int_Tables_number            1
loop_
_symmetry_equiv_pos_as_xyz
'x, y, z'
loop_
   _atom_site_label
   _atom_site_occupancy
   _atom_site_fract_x
   _atom_site_fract_y
   _atom_site_fract_z
   _atom_site_adp_type
   _atom_site_U_iso_or_equiv
   _atom_site_type_symbol
   O1         1.0     0.4490(4)     0.000000      0.250000     Uiso  0.005300 O
   O1         1.0     0.5510(4)     0.000000      0.750000     Uiso  0.005300 O
   O1         1.0     0.000000      0.4490(4)     0.250000     Uiso  0.005300 O
   O1         1.0     0.000000      0.5510(4)     0.750000     Uiso  0.005300 O
   O1         1.0     0.5510(4)     0.5510(4)     0.250000     Uiso  0.005300 O
   O1         1.0     0.4490(4)     0.4490(4)     0.750000     Uiso  0.005300 O
   O1         1.0     0.1157(4)     0.333333      0.583333     Uiso  0.005300 O
   O1         1.0     0.2177(4)     0.333333      0.083333     Uiso  0.005300 O
   O1         1.0     0.666667      0.7823(4)     0.583333     Uiso  0.005300 O
   O1         1.0     0.666667      0.8843(4)     0.083333     Uiso  0.005300 O
   O1         1.0     0.2177(4)     0.8843(4)     0.583333     Uiso  0.005300 O
   O1         1.0     0.1157(4)     0.7823(4)     0.083333     Uiso  0.005300 O
   O1         1.0     0.7823(4)     0.666667      0.916667     Uiso  0.005300 O
   O1         1.0     0.8843(4)     0.666667      0.416667     Uiso  0.005300 O
   O1         1.0     0.333333      0.1157(4)     0.916667     Uiso  0.005300 O
   O1         1.0     0.333333      0.2177(4)     0.416667     Uiso  0.005300 O
   O1         1.0     0.8843(4)     0.2177(4)     0.916667     Uiso  0.005300 O
   O1         1.0     0.7823(4)     0.1157(4)     0.416667     Uiso  0.005300 O
   La1        1.0     0.000000      0.000000      0.250000     Uiso  0.000300 La
   La1        1.0     0.000000      0.000000      0.750000     Uiso  0.000300 La
   La1        1.0     0.666667      0.333333      0.583333     Uiso  0.000300 La
   La1        1.0     0.666667      0.333333      0.083333     Uiso  0.000300 La
   La1        1.0     0.333333      0.666667      0.916667     Uiso  0.000300 La
   La1        1.0     0.333333      0.666667      0.416667     Uiso  0.000300 La
   Co1        0.9999  0.000000      0.000000      0.000000     Uiso  0.002900 Co
   Co1        0.9999  0.000000      0.000000      0.500000     Uiso  0.002900 Co
   Co1        0.9999  0.666667      0.333333      0.333333     Uiso  0.002900 Co
   Co1        0.9999  0.666667      0.333333      0.833333     Uiso  0.002900 Co
   Co1        0.9999  0.333333      0.666667      0.666667     Uiso  0.002900 Co
   Co1        0.9999  0.333333      0.666667      0.166667     Uiso  0.002900 Co
