Fe2+ / symbol=Fe charge= 2
Fe2+ / symbol=Fe charge= 2
Fe2+ / symbol=Fe charge= 2
Fe2+ / symbol=Fe charge= 2
Fe3+ / symbol=Fe charge= 3
Fe3+ / symbol=Fe charge= 3
Fe3+ / symbol=Fe charge= 3
Fe3+ / symbol=Fe charge= 3
Fe3+ / symbol=Fe charge= 3
Fe3+ / symbol=Fe charge= 3
O2- / symbol=O charge= -2
O2- / symbol=O charge= -2
O2- / symbol=O charge= -2
O2- / symbol=O charge= -2
O2- / symbol=O charge= -2
O2- / symbol=O charge= -2
O2- / symbol=O charge= -2
O2- / symbol=O charge= -2
O2- / symbol=O charge= -2
O2- / symbol=O charge= -2
O2- / symbol=O charge= -2
O2- / symbol=O charge= -2
# CIF file generated by openbabel 2.3.2, see http://openbabel.sf.net
data_I
_chemical_name_common 'Iron diiron(III) oxide'
_cell_length_a 5.934
_cell_length_b 5.925
_cell_length_c 16.752
_cell_angle_alpha 90
_cell_angle_beta 90
_cell_angle_gamma 90
_space_group_name_H-M_alt 'P 1'
_space_group_name_Hall 'P 1'
loop_
    _symmetry_equiv_pos_as_xyz
    'x,y,z'
loop_
    _atom_site_type_symbol
    _atom_site_label
    _atom_site_Cartn_x
    _atom_site_Cartn_y
    _atom_site_Cartn_z
     Fe  Fe1    -0.00000   -0.00000    5.23500
     Fe  Fe2     2.96700   -0.00000    1.04700
     Fe  Fe3     2.96700    2.96250    3.14100
     Fe  Fe4    -0.00000    2.96250    5.23500
     Fe  Fe5     1.48350    2.96250    0.00000
     Fe  Fe6    -0.00000    1.48125    2.09400
     Fe  Fe7    -0.00000    4.44375    2.09400
     Fe  Fe8     1.48350   -0.00000    4.18800
     Fe  Fe9     2.96700    1.48125    6.28200
     Fe  Fe10     2.96700    4.44375    6.28200
      O   O1    -0.00000    1.53813    0.04020
      O   O2     2.96700    1.53813   -0.04020
      O   O3    -0.00000    4.38687    0.04020
      O   O4     2.96700    4.38687   -0.04020
      O   O5     1.42653   -0.00000    2.13420
      O   O6     1.42653    2.96250    2.05380
      O   O7    -0.00000    1.42437    4.14780
      O   O8     2.96700    1.42437    4.22821
      O   O9    -0.00000    4.50063    4.14780
      O  O10     2.96700    4.50063    4.22821
      O  O11     1.54047   -0.00000    6.24180
      O  O12     1.54047    2.96250    6.32221
     Fe  Fe1    -0.00000   -0.00000   13.61100
     Fe  Fe2     2.96700   -0.00000    9.42300
     Fe  Fe3     2.96700    2.96250   11.51700
     Fe  Fe4    -0.00000    2.96250   13.61100
     Fe  Fe5     4.45050    2.96250    8.37600
     Fe  Fe5     1.48350    2.96250    8.37600
     Fe  Fe5     4.45050    2.96250    0.00000
     Fe  Fe6    -0.00000    4.44375   10.47000
     Fe  Fe7    -0.00000    1.48125   10.47000
     Fe  Fe8     4.45050   -0.00000   12.56400
     Fe  Fe8     1.48350   -0.00000   12.56400
     Fe  Fe8     4.45050   -0.00000    4.18800
     Fe  Fe9     2.96700    4.44375   14.65800
     Fe  Fe10     2.96700    1.48125   14.65800
      O   O1    -0.00000    4.38687    8.41621
      O   O2     2.96700    4.38687    8.33580
      O   O3    -0.00000    1.53813    8.41621
      O   O4     2.96700    1.53813    8.33580
      O   O5     4.50747   -0.00000   10.51021
      O   O5     1.42653   -0.00000   10.51021
      O   O5     4.50747   -0.00000    2.13420
      O   O6     4.50747    2.96250   10.42980
      O   O6     1.42653    2.96250   10.42980
      O   O6     4.50747    2.96250    2.05380
      O   O7    -0.00000    4.50063   12.52380
      O   O8     2.96700    4.50063   12.60421
      O   O9    -0.00000    1.42437   12.52380
      O  O10     2.96700    1.42437   12.60421
      O  O11     4.39353   -0.00000   14.61780
      O  O11     1.54047   -0.00000   14.61780
      O  O11     4.39353   -0.00000    6.24180
      O  O12     4.39353    2.96250   14.69821
      O  O12     1.54047    2.96250   14.69821
      O  O12     4.39353    2.96250    6.32221
