# CIF file generated by openbabel 2.3.2, see http://openbabel.sf.net
data_I
_chemical_name_common 'LCO.cif'
_cell_length_a 5.40529
_cell_length_b 5.40529
_cell_length_c 12.944
_cell_angle_alpha 90
_cell_angle_beta 90
_cell_angle_gamma 120
_space_group_name_H-M_alt 'P 1'
_space_group_name_Hall 'P 1'
loop_
    _symmetry_equiv_pos_as_xyz
    'x,y,z'
loop_
    _atom_site_type_symbol
    _atom_site_label
    _atom_site_Cartn_x
    _atom_site_Cartn_y
    _atom_site_Cartn_z
      O   O1     2.42697   -0.00000    3.23601
      O   O1     2.97831   -0.00000    9.70803
      O   O1    -1.21349    2.10182    3.23601
      O   O1    -1.48916    2.57929    9.70803
      O   O1     1.48916    2.57930    3.23601
      O   O1     1.21349    2.10182    9.70803
      O   O1    -0.27549    1.56037    7.55068
      O   O1     0.27585    1.56037    1.07867
      O   O1     1.48925    3.66204    7.55068
      O   O1     1.21358    4.13951    1.07867
      O   O1    -1.21322    4.13951    7.55068
      O   O1    -1.48889    3.66204    1.07867
      O   O1     2.42679    3.12075   11.86537
      O   O1     2.97813    3.12075    5.39335
      O   O1     1.48906    0.54160   11.86537
      O   O1     1.21340    1.01908    5.39335
      O   O1     4.19153    1.01908   11.86537
      O   O1     3.91586    0.54160    5.39335
     La  La1    -0.00000   -0.00000    3.23601
     La  La1    -0.00000   -0.00000    9.70803
     La  La1     2.70265    1.56037    7.55068
     La  La1     2.70265    1.56037    1.07867
     La  La1    -0.00000    3.12075   11.86537
     La  La1    -0.00000    3.12075    5.39335
     Co  Co1     0.00000    0.00000    0.00000
     Co  Co1    -0.00000   -0.00000    6.47202
     Co  Co1     2.70265    1.56037    4.31467
     Co  Co1     2.70265    1.56037   10.78669
     Co  Co1    -0.00000    3.12075    8.62936
     Co  Co1    -0.00000    3.12075    2.15734
